Circuit: * D:\programacion\Python\proyectoFiltroPasaBanda\Ecualizador.asc

WARNING: Less than two connections to node VCC.  This node is used by V1.
WARNING: Less than two connections to node VEE.  This node is used by V2.
WARNING: Less than two connections to node N018.  This node is used by R2.
Direct Newton iteration for .op point succeeded.

Date: Sat Apr 17 01:18:26 2021
Total elapsed time: 35.860 seconds.

tnom = 27
temp = 27
method = modified trap
totiter = 1039537
traniter = 1039534
tranpoints = 518222
accept = 518145
rejected = 77
matrix size = 136
fillins = 174
solver = Normal
Thread vector: 5.3/3.1[4] 1.5/1.8[1] 2.3/1.5[4] 0.5/1.4[1]  2592/500
Matrix Compiler1: 10.12 KB object code size  2.0/1.1/[0.4]
Matrix Compiler2: 11.87 KB object code size  0.8/1.6/[0.4]

