Circuit: * D:\programacion\Python\proyectoFiltroPasaBanda\Ecualizador.asc

WARNING: Node VIN2D is floating.

WARNING: Less than two connections to node VCC.  This node is used by V1.
WARNING: Less than two connections to node VEE.  This node is used by V2.
WARNING: Less than two connections to node VIN2D.  This node is used by C42.
Direct Newton iteration for .op point succeeded.

Date: Fri Apr 16 17:56:24 2021
Total elapsed time: 348.345 seconds.

tnom = 27
temp = 27
method = modified trap
totiter = 13948925
traniter = 13948922
tranpoints = 6974445
accept = 5752509
rejected = 1221936
matrix size = 131
fillins = 165
solver = Normal
Thread vector: 4.5/3.5[4] 1.4/1.6[1] 2.2/1.8[3] 0.5/1.5[1]  2592/500
Matrix Compiler1: 9.72 KB object code size  3.3/1.5/[0.6]
Matrix Compiler2: 11.35 KB object code size  1.4/1.7/[0.5]

