Circuit: * D:\programacion\Python\proyectoFiltroPasaBanda\Ecualizador.asc

WARNING: Less than two connections to node VCC.  This node is used by V1.
WARNING: Less than two connections to node VEE.  This node is used by V2.
Direct Newton iteration for .op point succeeded.

Date: Sat Apr 17 01:35:38 2021
Total elapsed time: 433.748 seconds.

tnom = 27
temp = 27
method = modified trap
totiter = 16796278
traniter = 16796275
tranpoints = 8376680
accept = 6909662
rejected = 1467018
matrix size = 133
fillins = 177
solver = Normal
Thread vector: 17.9/4.8[4] 2.1/2.9[1] 3.3/2.5[4] 0.5/1.6[1]  2592/500
Matrix Compiler1: 10.03 KB object code size  2.1/2.1/[0.4]
Matrix Compiler2: 11.69 KB object code size  1.2/2.2/[0.6]

