Circuit: * D:\programacion\Python\proyectoFiltroPasaBanda\Circuitos auxiliares\Ecualizador.asc

.OP point found by inspection.

Date: Fri Apr 16 18:02:36 2021
Total elapsed time: 0.544 seconds.

tnom = 27
temp = 27
method = trap
totiter = 0
traniter = 0
tranpoints = 0
accept = 0
rejected = 0
matrix size = 115
fillins = 173
solver = Normal

